<?xml version="1.0" encoding="UTF-8"?>

<!-- generated on 2026-03-09 22:55:00.800413 by Eclipse SUMO randomTrips.py v1.26.0
<configuration>
    <net-file value="sumo_integration/network/synthetic_4way.net.xml"/>
    <output-trip-file value="sumo_integration/network/trips_light.xml"/>
    <seed value="99"/>
    <min-distance value="50.0"/>
    <period value="15.0"/>
</configuration>
-->

<!-- generated on 2026-03-09T22:55:00.777120+05:30 by Eclipse SUMO duarouter 1.26.0
<duarouterConfiguration xmlns:xsi="http://www.w3.org/2001/XMLSchema-instance" xsi:noNamespaceSchemaLocation="http://sumo.dlr.de/xsd/duarouterConfiguration.xsd">

    <input>
        <net-file value="sumo_integration/network/synthetic_4way.net.xml"/>
        <route-files value="sumo_integration/network/trips_light.xml"/>
    </input>

    <output>
        <output-file value="routes.rou.xml"/>
        <alternatives-output value="NUL"/>
    </output>

    <time>
        <begin value="0.0"/>
        <end value="3600.0"/>
    </time>

    <report>
        <no-warnings value="true"/>
        <ignore-errors value="true"/>
        <no-step-log value="true"/>
    </report>

</duarouterConfiguration>
-->

<routes xmlns:xsi="http://www.w3.org/2001/XMLSchema-instance" xsi:noNamespaceSchemaLocation="http://sumo.dlr.de/xsd/routes_file.xsd">
    <vehicle id="0" depart="0.00">
        <route edges="B0C0 C0C1 C1B1 B1A1 A1B1"/>
    </vehicle>
    <vehicle id="1" depart="15.00">
        <route edges="C0C1 C1B1 B1A1 A1A2 A2B2"/>
    </vehicle>
    <vehicle id="2" depart="30.00">
        <route edges="B0C0 C0C1 C1B1 B1B2 B2C2"/>
    </vehicle>
    <vehicle id="3" depart="45.00">
        <route edges="B1B2 B2B1 B1C1 C1C2 C2B2"/>
    </vehicle>
    <vehicle id="4" depart="60.00">
        <route edges="B1B0 B0B1 B1A1"/>
    </vehicle>
    <vehicle id="5" depart="75.00">
        <route edges="B2A2 A2A1"/>
    </vehicle>
    <vehicle id="6" depart="90.00">
        <route edges="C1C2 C2B2 B2B1 B1B0 B0B1"/>
    </vehicle>
    <vehicle id="7" depart="105.00">
        <route edges="B0C0 C0C1 C1B1 B1B2 B2C2"/>
    </vehicle>
    <vehicle id="8" depart="120.00">
        <route edges="A1A2 A2B2 B2B1"/>
    </vehicle>
    <vehicle id="9" depart="135.00">
        <route edges="C1C0 C0B0 B0B1"/>
    </vehicle>
    <vehicle id="10" depart="150.00">
        <route edges="C2B2 B2B1 B1B2"/>
    </vehicle>
    <vehicle id="11" depart="165.00">
        <route edges="C0C1 C1B1 B1B0"/>
    </vehicle>
    <vehicle id="12" depart="180.00">
        <route edges="B0C0 C0C1 C1B1 B1A1 A1A2 A2B2"/>
    </vehicle>
    <vehicle id="13" depart="195.00">
        <route edges="A0A1 A1B1"/>
    </vehicle>
    <vehicle id="14" depart="210.00">
        <route edges="C2C1 C1B1 B1B2"/>
    </vehicle>
    <vehicle id="15" depart="225.00">
        <route edges="B1B0 B0C0 C0C1 C1C2"/>
    </vehicle>
    <vehicle id="16" depart="240.00">
        <route edges="B2A2 A2A1 A1B1 B1B2 B2C2 C2C1"/>
    </vehicle>
    <vehicle id="17" depart="255.00">
        <route edges="B0B1 B1B2 B2A2 A2A1"/>
    </vehicle>
    <vehicle id="18" depart="270.00">
        <route edges="C2B2 B2B1 B1A1 A1A2"/>
    </vehicle>
    <vehicle id="19" depart="285.00">
        <route edges="C1B1 B1B2 B2A2"/>
    </vehicle>
    <vehicle id="20" depart="300.00">
        <route edges="C2C1 C1C2 C2B2"/>
    </vehicle>
    <vehicle id="21" depart="315.00">
        <route edges="B2B1 B1B0 B0A0 A0A1"/>
    </vehicle>
    <vehicle id="22" depart="330.00">
        <route edges="A0A1 A1B1 B1B0"/>
    </vehicle>
    <vehicle id="23" depart="345.00">
        <route edges="C1B1 B1A1 A1A0 A0B0"/>
    </vehicle>
    <vehicle id="24" depart="360.00">
        <route edges="B1A1 A1A0"/>
    </vehicle>
    <vehicle id="25" depart="375.00">
        <route edges="B0A0 A0A1"/>
    </vehicle>
    <vehicle id="26" depart="390.00">
        <route edges="B0A0 A0A1 A1B1 B1B2"/>
    </vehicle>
    <vehicle id="27" depart="405.00">
        <route edges="A1B1 B1B0 B0C0 C0C1"/>
    </vehicle>
    <vehicle id="28" depart="420.00">
        <route edges="A0B0 B0B1 B1B2 B2A2 A2A1"/>
    </vehicle>
    <vehicle id="29" depart="435.00">
        <route edges="A2B2 B2B1 B1B0 B0C0"/>
    </vehicle>
    <vehicle id="30" depart="450.00">
        <route edges="C0C1 C1C0 C0B0 B0B1"/>
    </vehicle>
    <vehicle id="31" depart="465.00">
        <route edges="A1A2 A2B2 B2C2 C2C1 C1C0"/>
    </vehicle>
    <vehicle id="32" depart="480.00">
        <route edges="B2A2 A2A1 A1B1 B1C1 C1C0 C0B0"/>
    </vehicle>
    <vehicle id="33" depart="495.00">
        <route edges="B2A2 A2A1 A1A0 A0B0 B0C0"/>
    </vehicle>
    <vehicle id="34" depart="510.00">
        <route edges="A1A0 A0B0 B0B1 B1A1 A1A2"/>
    </vehicle>
    <vehicle id="35" depart="525.00">
        <route edges="A1B1"/>
    </vehicle>
    <vehicle id="36" depart="540.00">
        <route edges="A1A2 A2B2 B2B1 B1A1 A1B1"/>
    </vehicle>
    <vehicle id="37" depart="555.00">
        <route edges="B1C1 C1B1 B1B0 B0C0 C0C1"/>
    </vehicle>
    <vehicle id="38" depart="570.00">
        <route edges="C1B1 B1C1 C1C0"/>
    </vehicle>
    <vehicle id="39" depart="585.00">
        <route edges="A1A0 A0B0 B0C0 C0C1 C1B1"/>
    </vehicle>
    <vehicle id="40" depart="600.00">
        <route edges="A1B1 B1A1 A1A0 A0B0"/>
    </vehicle>
    <vehicle id="41" depart="615.00">
        <route edges="A0B0 B0B1 B1B2 B2A2 A2A1"/>
    </vehicle>
    <vehicle id="42" depart="630.00">
        <route edges="B0C0 C0C1 C1B1"/>
    </vehicle>
    <vehicle id="43" depart="645.00">
        <route edges="B0C0"/>
    </vehicle>
    <vehicle id="44" depart="660.00">
        <route edges="B0B1 B1A1 A1A0"/>
    </vehicle>
    <vehicle id="45" depart="675.00">
        <route edges="C1C2 C2B2"/>
    </vehicle>
    <vehicle id="46" depart="690.00">
        <route edges="B1A1 A1B1 B1B0 B0A0"/>
    </vehicle>
    <vehicle id="47" depart="705.00">
        <route edges="B2B1"/>
    </vehicle>
    <vehicle id="48" depart="720.00">
        <route edges="B0A0 A0A1 A1B1 B1C1 C1C0"/>
    </vehicle>
    <vehicle id="49" depart="735.00">
        <route edges="C0B0 B0B1 B1B2 B2A2 A2A1"/>
    </vehicle>
    <vehicle id="50" depart="750.00">
        <route edges="C1B1 B1B2 B2C2"/>
    </vehicle>
    <vehicle id="51" depart="765.00">
        <route edges="A2A1 A1B1 B1B0 B0A0"/>
    </vehicle>
    <vehicle id="52" depart="780.00">
        <route edges="C0C1 C1B1 B1A1 A1A0 A0B0"/>
    </vehicle>
    <vehicle id="53" depart="795.00">
        <route edges="B1A1 A1A2 A2B2 B2C2 C2C1"/>
    </vehicle>
    <vehicle id="54" depart="810.00">
        <route edges="A2B2 B2B1 B1B2"/>
    </vehicle>
    <vehicle id="55" depart="825.00">
        <route edges="C1C2 C2B2 B2B1 B1C1 C1C0"/>
    </vehicle>
    <vehicle id="56" depart="840.00">
        <route edges="C0C1 C1B1 B1B2"/>
    </vehicle>
    <vehicle id="57" depart="855.00">
        <route edges="C2B2 B2B1 B1A1 A1A2 A2B2"/>
    </vehicle>
    <vehicle id="58" depart="870.00">
        <route edges="C1C2 C2B2 B2B1 B1B0 B0C0"/>
    </vehicle>
    <vehicle id="59" depart="885.00">
        <route edges="B2B1 B1B2 B2A2"/>
    </vehicle>
    <vehicle id="60" depart="900.00">
        <route edges="A2B2 B2C2"/>
    </vehicle>
    <vehicle id="61" depart="915.00">
        <route edges="B2A2 A2A1 A1B1 B1B2 B2C2 C2C1"/>
    </vehicle>
    <vehicle id="62" depart="930.00">
        <route edges="B2C2 C2C1 C1B1 B1A1"/>
    </vehicle>
    <vehicle id="63" depart="945.00">
        <route edges="B0C0 C0C1 C1C2"/>
    </vehicle>
    <vehicle id="64" depart="960.00">
        <route edges="B0B1 B1B2 B2C2"/>
    </vehicle>
    <vehicle id="65" depart="975.00">
        <route edges="B2C2 C2C1"/>
    </vehicle>
    <vehicle id="66" depart="990.00">
        <route edges="A1B1 B1B2 B2B1"/>
    </vehicle>
    <vehicle id="67" depart="1005.00">
        <route edges="A1B1 B1B2 B2B1"/>
    </vehicle>
    <vehicle id="68" depart="1020.00">
        <route edges="B2B1 B1C1 C1C0 C0B0"/>
    </vehicle>
    <vehicle id="69" depart="1035.00">
        <route edges="C1C0 C0B0 B0B1 B1B2 B2A2 A2A1"/>
    </vehicle>
    <vehicle id="70" depart="1050.00">
        <route edges="C1C0 C0B0 B0B1"/>
    </vehicle>
    <vehicle id="71" depart="1065.00">
        <route edges="B0C0 C0C1 C1B1 B1A1 A1A0"/>
    </vehicle>
    <vehicle id="72" depart="1080.00">
        <route edges="B1B2 B2B1 B1B0 B0A0 A0A1"/>
    </vehicle>
    <vehicle id="73" depart="1095.00">
        <route edges="B0A0 A0A1 A1A2 A2B2 B2C2"/>
    </vehicle>
    <vehicle id="74" depart="1110.00">
        <route edges="C0B0 B0A0 A0A1 A1B1"/>
    </vehicle>
    <vehicle id="75" depart="1125.00">
        <route edges="C0C1 C1B1 B1A1"/>
    </vehicle>
    <vehicle id="76" depart="1140.00">
        <route edges="A1B1 B1C1 C1C0 C0B0"/>
    </vehicle>
    <vehicle id="77" depart="1155.00">
        <route edges="C0B0 B0B1 B1B0"/>
    </vehicle>
    <vehicle id="78" depart="1170.00">
        <route edges="B1B2 B2A2"/>
    </vehicle>
    <vehicle id="79" depart="1185.00">
        <route edges="B2B1 B1B0 B0C0 C0C1"/>
    </vehicle>
    <vehicle id="80" depart="1200.00">
        <route edges="C0C1 C1B1 B1A1 A1B1"/>
    </vehicle>
    <vehicle id="81" depart="1215.00">
        <route edges="B0A0 A0A1 A1B1 B1C1"/>
    </vehicle>
    <vehicle id="82" depart="1230.00">
        <route edges="C2C1 C1B1 B1A1"/>
    </vehicle>
    <vehicle id="83" depart="1245.00">
        <route edges="B0B1 B1C1"/>
    </vehicle>
    <vehicle id="84" depart="1260.00">
        <route edges="C2B2 B2A2"/>
    </vehicle>
    <vehicle id="85" depart="1275.00">
        <route edges="B0A0 A0A1 A1B1 B1B0 B0C0 C0C1"/>
    </vehicle>
    <vehicle id="86" depart="1290.00">
        <route edges="C2C1 C1B1"/>
    </vehicle>
    <vehicle id="87" depart="1305.00">
        <route edges="B0C0 C0C1 C1B1 B1A1 A1B1"/>
    </vehicle>
    <vehicle id="88" depart="1320.00">
        <route edges="B1B0 B0A0 A0A1 A1A2"/>
    </vehicle>
    <vehicle id="89" depart="1335.00">
        <route edges="C1C0 C0B0 B0B1 B1B2 B2C2"/>
    </vehicle>
    <vehicle id="90" depart="1350.00">
        <route edges="B1A1 A1B1 B1C1 C1C2 C2B2"/>
    </vehicle>
    <vehicle id="91" depart="1365.00">
        <route edges="A1B1 B1A1 A1A2 A2B2"/>
    </vehicle>
    <vehicle id="92" depart="1380.00">
        <route edges="A2B2 B2B1 B1C1"/>
    </vehicle>
    <vehicle id="93" depart="1395.00">
        <route edges="C1C2 C2B2 B2B1 B1B0 B0C0"/>
    </vehicle>
    <vehicle id="94" depart="1410.00">
        <route edges="C1B1 B1C1 C1C2 C2B2"/>
    </vehicle>
    <vehicle id="95" depart="1425.00">
        <route edges="B1B0 B0C0 C0C1 C1C2"/>
    </vehicle>
    <vehicle id="96" depart="1440.00">
        <route edges="C1C2 C2B2 B2B1 B1B0"/>
    </vehicle>
    <vehicle id="97" depart="1455.00">
        <route edges="A1B1 B1A1 A1A0 A0B0"/>
    </vehicle>
    <vehicle id="98" depart="1470.00">
        <route edges="A2A1 A1B1 B1B0"/>
    </vehicle>
    <vehicle id="99" depart="1485.00">
        <route edges="C0B0 B0B1 B1C1"/>
    </vehicle>
    <vehicle id="100" depart="1500.00">
        <route edges="B1C1 C1B1 B1B0 B0C0"/>
    </vehicle>
    <vehicle id="101" depart="1515.00">
        <route edges="A1A2 A2B2 B2A2"/>
    </vehicle>
    <vehicle id="102" depart="1530.00">
        <route edges="A0B0 B0A0 A0A1"/>
    </vehicle>
    <vehicle id="103" depart="1545.00">
        <route edges="B0B1 B1B2 B2A2 A2A1"/>
    </vehicle>
    <vehicle id="104" depart="1560.00">
        <route edges="C0C1 C1B1 B1A1 A1A2"/>
    </vehicle>
    <vehicle id="105" depart="1575.00">
        <route edges="B1A1 A1A2 A2B2 B2C2"/>
    </vehicle>
    <vehicle id="106" depart="1590.00">
        <route edges="A1A0 A0B0 B0A0 A0A1 A1B1"/>
    </vehicle>
    <vehicle id="107" depart="1605.00">
        <route edges="A2B2 B2B1 B1B0 B0B1"/>
    </vehicle>
    <vehicle id="108" depart="1620.00">
        <route edges="B1C1 C1B1 B1B2 B2C2"/>
    </vehicle>
    <vehicle id="109" depart="1635.00">
        <route edges="B2B1 B1C1 C1B1"/>
    </vehicle>
    <vehicle id="110" depart="1650.00">
        <route edges="A0B0 B0B1 B1B2 B2C2"/>
    </vehicle>
    <vehicle id="111" depart="1665.00">
        <route edges="C0B0 B0B1 B1C1 C1B1"/>
    </vehicle>
    <vehicle id="112" depart="1680.00">
        <route edges="A1A2 A2B2 B2B1 B1A1 A1A0"/>
    </vehicle>
    <vehicle id="113" depart="1695.00">
        <route edges="C0C1 C1C2 C2B2 B2B1"/>
    </vehicle>
    <vehicle id="114" depart="1710.00">
        <route edges="A1A2 A2B2 B2C2 C2C1 C1C0"/>
    </vehicle>
    <vehicle id="115" depart="1725.00">
        <route edges="C0B0 B0B1 B1B2 B2A2"/>
    </vehicle>
    <vehicle id="116" depart="1740.00">
        <route edges="C0C1 C1C2 C2B2 B2A2"/>
    </vehicle>
    <vehicle id="117" depart="1755.00">
        <route edges="B0B1 B1B2 B2B1"/>
    </vehicle>
    <vehicle id="118" depart="1770.00">
        <route edges="A1B1"/>
    </vehicle>
    <vehicle id="119" depart="1785.00">
        <route edges="A1A0 A0B0 B0B1 B1B0"/>
    </vehicle>
    <vehicle id="120" depart="1800.00">
        <route edges="C2C1 C1C0 C0B0"/>
    </vehicle>
    <vehicle id="121" depart="1815.00">
        <route edges="A0A1 A1B1 B1B0 B0C0"/>
    </vehicle>
    <vehicle id="122" depart="1830.00">
        <route edges="B2C2 C2C1 C1B1 B1A1 A1A0"/>
    </vehicle>
    <vehicle id="123" depart="1845.00">
        <route edges="C1B1 B1B2 B2A2 A2A1"/>
    </vehicle>
    <vehicle id="124" depart="1860.00">
        <route edges="C1C0 C0B0 B0B1 B1A1 A1A0 A0B0"/>
    </vehicle>
    <vehicle id="125" depart="1875.00">
        <route edges="C1B1 B1C1 C1C2"/>
    </vehicle>
    <vehicle id="126" depart="1890.00">
        <route edges="B0B1 B1B0 B0A0"/>
    </vehicle>
    <vehicle id="127" depart="1905.00">
        <route edges="A0B0 B0C0"/>
    </vehicle>
    <vehicle id="128" depart="1920.00">
        <route edges="B0A0 A0A1 A1A2"/>
    </vehicle>
    <vehicle id="129" depart="1935.00">
        <route edges="C1B1 B1B0 B0A0"/>
    </vehicle>
    <vehicle id="130" depart="1950.00">
        <route edges="A0B0 B0B1"/>
    </vehicle>
    <vehicle id="131" depart="1965.00">
        <route edges="B2A2 A2A1 A1B1 B1B0 B0A0"/>
    </vehicle>
    <vehicle id="132" depart="1980.00">
        <route edges="B0B1 B1B0 B0A0"/>
    </vehicle>
    <vehicle id="133" depart="1995.00">
        <route edges="C1B1 B1B0 B0A0 A0A1"/>
    </vehicle>
    <vehicle id="134" depart="2010.00">
        <route edges="C1B1 B1B2 B2A2"/>
    </vehicle>
    <vehicle id="135" depart="2025.00">
        <route edges="B1C1 C1B1 B1B2 B2C2"/>
    </vehicle>
    <vehicle id="136" depart="2040.00">
        <route edges="A0A1 A1B1 B1C1 C1C0"/>
    </vehicle>
    <vehicle id="137" depart="2055.00">
        <route edges="A2B2 B2B1 B1B0 B0C0"/>
    </vehicle>
    <vehicle id="138" depart="2070.00">
        <route edges="B1B2 B2B1 B1C1 C1C2"/>
    </vehicle>
    <vehicle id="139" depart="2085.00">
        <route edges="A2A1 A1B1 B1B2"/>
    </vehicle>
    <vehicle id="140" depart="2100.00">
        <route edges="C2C1 C1B1 B1B2 B2A2 A2A1"/>
    </vehicle>
    <vehicle id="141" depart="2115.00">
        <route edges="B2B1 B1A1 A1A2"/>
    </vehicle>
    <vehicle id="142" depart="2130.00">
        <route edges="B1C1 C1B1 B1A1"/>
    </vehicle>
    <vehicle id="143" depart="2145.00">
        <route edges="B1C1 C1C0 C0B0 B0A0 A0A1"/>
    </vehicle>
    <vehicle id="144" depart="2160.00">
        <route edges="A1B1 B1C1 C1C2"/>
    </vehicle>
    <vehicle id="145" depart="2175.00">
        <route edges="A1B1 B1B0 B0A0"/>
    </vehicle>
    <vehicle id="146" depart="2190.00">
        <route edges="C2C1 C1B1 B1A1 A1A2 A2B2"/>
    </vehicle>
    <vehicle id="147" depart="2205.00">
        <route edges="B1C1 C1B1 B1A1"/>
    </vehicle>
    <vehicle id="148" depart="2220.00">
        <route edges="A0A1 A1A2 A2B2 B2B1"/>
    </vehicle>
    <vehicle id="149" depart="2235.00">
        <route edges="B1B2 B2B1 B1C1 C1C2 C2B2"/>
    </vehicle>
    <vehicle id="150" depart="2250.00">
        <route edges="C2C1 C1B1 B1A1 A1A0 A0B0"/>
    </vehicle>
    <vehicle id="151" depart="2265.00">
        <route edges="B2A2 A2A1 A1A0 A0B0 B0B1"/>
    </vehicle>
    <vehicle id="152" depart="2280.00">
        <route edges="A1A2 A2B2 B2B1 B1C1 C1C2 C2B2"/>
    </vehicle>
    <vehicle id="153" depart="2295.00">
        <route edges="A1A0 A0B0 B0B1 B1B2"/>
    </vehicle>
    <vehicle id="154" depart="2310.00">
        <route edges="A2A1 A1B1 B1C1"/>
    </vehicle>
    <vehicle id="155" depart="2325.00">
        <route edges="A2A1 A1B1 B1C1 C1C0"/>
    </vehicle>
    <vehicle id="156" depart="2340.00">
        <route edges="C1B1 B1A1 A1A2"/>
    </vehicle>
    <vehicle id="157" depart="2355.00">
        <route edges="C0B0 B0B1 B1B2 B2A2 A2A1"/>
    </vehicle>
    <vehicle id="158" depart="2370.00">
        <route edges="C1C0 C0B0 B0A0 A0A1 A1A2 A2B2"/>
    </vehicle>
    <vehicle id="159" depart="2385.00">
        <route edges="B2B1 B1B2 B2C2"/>
    </vehicle>
    <vehicle id="160" depart="2400.00">
        <route edges="B1B2 B2C2 C2C1 C1C0"/>
    </vehicle>
    <vehicle id="161" depart="2415.00">
        <route edges="B1C1 C1C2 C2B2 B2A2 A2A1"/>
    </vehicle>
    <vehicle id="162" depart="2430.00">
        <route edges="B1B2 B2C2"/>
    </vehicle>
    <vehicle id="163" depart="2445.00">
        <route edges="B1A1 A1B1 B1B2"/>
    </vehicle>
    <vehicle id="164" depart="2460.00">
        <route edges="A0B0 B0B1 B1A1 A1A2 A2B2"/>
    </vehicle>
    <vehicle id="165" depart="2475.00">
        <route edges="C0C1 C1C0 C0B0 B0B1"/>
    </vehicle>
    <vehicle id="166" depart="2490.00">
        <route edges="A1B1 B1C1 C1B1"/>
    </vehicle>
    <vehicle id="167" depart="2505.00">
        <route edges="A0A1"/>
    </vehicle>
    <vehicle id="168" depart="2520.00">
        <route edges="A0B0 B0A0 A0A1 A1B1"/>
    </vehicle>
    <vehicle id="169" depart="2535.00">
        <route edges="A2B2 B2B1 B1C1 C1C2 C2B2"/>
    </vehicle>
    <vehicle id="170" depart="2550.00">
        <route edges="A2B2 B2B1 B1C1"/>
    </vehicle>
    <vehicle id="171" depart="2565.00">
        <route edges="A1A0 A0B0 B0B1"/>
    </vehicle>
    <vehicle id="172" depart="2580.00">
        <route edges="A1A2 A2B2 B2B1 B1B0 B0A0"/>
    </vehicle>
    <vehicle id="173" depart="2595.00">
        <route edges="A2B2 B2B1 B1A1"/>
    </vehicle>
    <vehicle id="174" depart="2610.00">
        <route edges="C2B2 B2B1 B1B0 B0A0 A0A1"/>
    </vehicle>
    <vehicle id="175" depart="2625.00">
        <route edges="C1C0 C0B0 B0C0"/>
    </vehicle>
    <vehicle id="176" depart="2640.00">
        <route edges="B0B1 B1B0 B0A0"/>
    </vehicle>
    <vehicle id="177" depart="2655.00">
        <route edges="B0C0 C0C1 C1B1 B1B2"/>
    </vehicle>
    <vehicle id="178" depart="2670.00">
        <route edges="C0C1 C1B1 B1B0 B0A0 A0A1"/>
    </vehicle>
    <vehicle id="179" depart="2685.00">
        <route edges="B2A2 A2A1 A1A0 A0B0 B0C0 C0C1"/>
    </vehicle>
    <vehicle id="180" depart="2700.00">
        <route edges="A0B0 B0A0 A0A1"/>
    </vehicle>
    <vehicle id="181" depart="2715.00">
        <route edges="B2C2 C2C1"/>
    </vehicle>
    <vehicle id="182" depart="2730.00">
        <route edges="B0B1 B1A1"/>
    </vehicle>
    <vehicle id="183" depart="2745.00">
        <route edges="C1C2 C2B2 B2B1 B1A1 A1A2 A2B2"/>
    </vehicle>
    <vehicle id="184" depart="2760.00">
        <route edges="C0B0 B0B1 B1C1 C1B1"/>
    </vehicle>
    <vehicle id="185" depart="2775.00">
        <route edges="A2B2 B2A2 A2A1"/>
    </vehicle>
    <vehicle id="186" depart="2790.00">
        <route edges="C2B2 B2A2 A2A1"/>
    </vehicle>
    <vehicle id="187" depart="2805.00">
        <route edges="B0A0 A0A1 A1A0"/>
    </vehicle>
    <vehicle id="188" depart="2820.00">
        <route edges="C1C2 C2B2 B2A2"/>
    </vehicle>
    <vehicle id="189" depart="2835.00">
        <route edges="A2A1 A1B1 B1A1"/>
    </vehicle>
    <vehicle id="190" depart="2850.00">
        <route edges="B1A1 A1B1 B1B0 B0A0 A0A1"/>
    </vehicle>
    <vehicle id="191" depart="2865.00">
        <route edges="C0B0 B0B1 B1A1 A1A0 A0B0"/>
    </vehicle>
    <vehicle id="192" depart="2880.00">
        <route edges="A2B2 B2B1 B1B0 B0C0 C0C1"/>
    </vehicle>
    <vehicle id="193" depart="2895.00">
        <route edges="C1C2 C2B2 B2C2"/>
    </vehicle>
    <vehicle id="194" depart="2910.00">
        <route edges="B1A1 A1B1 B1C1 C1C2 C2B2"/>
    </vehicle>
    <vehicle id="195" depart="2925.00">
        <route edges="B0A0 A0A1 A1A2 A2B2 B2C2 C2C1"/>
    </vehicle>
    <vehicle id="196" depart="2940.00">
        <route edges="C1C0 C0B0 B0B1 B1A1 A1A0"/>
    </vehicle>
    <vehicle id="197" depart="2955.00">
        <route edges="A2B2 B2B1 B1B0 B0C0 C0C1"/>
    </vehicle>
    <vehicle id="198" depart="2970.00">
        <route edges="A0B0 B0C0 C0C1 C1C2 C2B2"/>
    </vehicle>
    <vehicle id="199" depart="2985.00">
        <route edges="B1A1 A1B1 B1B0"/>
    </vehicle>
    <vehicle id="200" depart="3000.00">
        <route edges="C2C1 C1B1 B1A1 A1A0"/>
    </vehicle>
    <vehicle id="201" depart="3015.00">
        <route edges="A0A1 A1B1 B1C1"/>
    </vehicle>
    <vehicle id="202" depart="3030.00">
        <route edges="B2B1 B1C1 C1C0"/>
    </vehicle>
    <vehicle id="203" depart="3045.00">
        <route edges="A1B1 B1C1 C1C2"/>
    </vehicle>
    <vehicle id="204" depart="3060.00">
        <route edges="B2B1 B1C1"/>
    </vehicle>
    <vehicle id="205" depart="3075.00">
        <route edges="A0A1 A1B1 B1C1 C1B1"/>
    </vehicle>
    <vehicle id="206" depart="3090.00">
        <route edges="A2A1 A1B1 B1B2 B2C2"/>
    </vehicle>
    <vehicle id="207" depart="3105.00">
        <route edges="C2C1 C1C0 C0B0 B0A0 A0A1"/>
    </vehicle>
    <vehicle id="208" depart="3120.00">
        <route edges="B1A1 A1B1 B1C1 C1C2 C2B2"/>
    </vehicle>
    <vehicle id="209" depart="3135.00">
        <route edges="A2B2 B2C2 C2C1 C1C0"/>
    </vehicle>
    <vehicle id="210" depart="3150.00">
        <route edges="C1B1 B1B2 B2C2"/>
    </vehicle>
    <vehicle id="211" depart="3165.00">
        <route edges="A1A0 A0B0 B0B1 B1C1 C1C0"/>
    </vehicle>
    <vehicle id="212" depart="3180.00">
        <route edges="A1A0 A0B0 B0B1 B1A1 A1A2 A2B2"/>
    </vehicle>
    <vehicle id="213" depart="3195.00">
        <route edges="B1B2 B2B1 B1A1 A1A2 A2B2"/>
    </vehicle>
    <vehicle id="214" depart="3210.00">
        <route edges="C2C1 C1B1 B1A1 A1A2"/>
    </vehicle>
    <vehicle id="215" depart="3225.00">
        <route edges="A2B2 B2B1 B1A1 A1A0"/>
    </vehicle>
    <vehicle id="216" depart="3240.00">
        <route edges="C0B0 B0B1 B1C1 C1B1"/>
    </vehicle>
    <vehicle id="217" depart="3255.00">
        <route edges="A2B2 B2B1 B1B0 B0C0"/>
    </vehicle>
    <vehicle id="218" depart="3270.00">
        <route edges="C1C2 C2B2 B2A2"/>
    </vehicle>
    <vehicle id="219" depart="3285.00">
        <route edges="A2A1 A1B1 B1B2 B2C2 C2C1"/>
    </vehicle>
    <vehicle id="220" depart="3300.00">
        <route edges="C0C1 C1B1 B1B0 B0A0"/>
    </vehicle>
    <vehicle id="221" depart="3315.00">
        <route edges="B1A1 A1B1 B1B2"/>
    </vehicle>
    <vehicle id="222" depart="3330.00">
        <route edges="B2B1 B1B0"/>
    </vehicle>
    <vehicle id="223" depart="3345.00">
        <route edges="A1A2 A2B2 B2B1 B1B0 B0A0"/>
    </vehicle>
    <vehicle id="224" depart="3360.00">
        <route edges="A1A2 A2B2 B2B1 B1B2"/>
    </vehicle>
    <vehicle id="225" depart="3375.00">
        <route edges="B2A2"/>
    </vehicle>
    <vehicle id="226" depart="3390.00">
        <route edges="A0B0 B0B1 B1C1"/>
    </vehicle>
    <vehicle id="227" depart="3405.00">
        <route edges="C0C1 C1B1 B1C1"/>
    </vehicle>
    <vehicle id="228" depart="3420.00">
        <route edges="B0B1 B1B0 B0C0 C0C1"/>
    </vehicle>
    <vehicle id="229" depart="3435.00">
        <route edges="B0C0 C0C1 C1B1"/>
    </vehicle>
    <vehicle id="230" depart="3450.00">
        <route edges="B1A1 A1A0"/>
    </vehicle>
    <vehicle id="231" depart="3465.00">
        <route edges="A1B1 B1C1 C1C2 C2B2"/>
    </vehicle>
    <vehicle id="232" depart="3480.00">
        <route edges="C0C1 C1B1 B1B0 B0A0"/>
    </vehicle>
    <vehicle id="233" depart="3495.00">
        <route edges="A1A0 A0B0 B0B1 B1C1 C1C0 C0B0"/>
    </vehicle>
    <vehicle id="234" depart="3510.00">
        <route edges="B2C2 C2C1 C1B1 B1A1 A1B1"/>
    </vehicle>
    <vehicle id="235" depart="3525.00">
        <route edges="A1A0"/>
    </vehicle>
    <vehicle id="236" depart="3540.00">
        <route edges="A0A1 A1B1 B1C1 C1C0"/>
    </vehicle>
    <vehicle id="237" depart="3555.00">
        <route edges="B0A0 A0A1 A1B1 B1B0 B0B1"/>
    </vehicle>
    <vehicle id="238" depart="3570.00">
        <route edges="A0B0 B0B1 B1B2 B2B1"/>
    </vehicle>
    <vehicle id="239" depart="3585.00">
        <route edges="A2B2 B2B1 B1C1"/>
    </vehicle>
</routes>
